# generated using pymatgen
data_ZnSi4WO10
_symmetry_space_group_name_H-M   'P 1'
_cell_length_a   7.42830500
_cell_length_b   7.42830500
_cell_length_c   15.13223000
_cell_angle_alpha   90.00000000
_cell_angle_beta   90.00000000
_cell_angle_gamma   90.00000000
_symmetry_Int_Tables_number   1
_chemical_formula_structural   ZnSi4WO10
_chemical_formula_sum   'Zn4 Si16 W4 O40'
_cell_volume   834.99214133
_cell_formula_units_Z   4
loop_
 _symmetry_equiv_pos_site_id
 _symmetry_equiv_pos_as_xyz
  1  'x, y, z'
loop_
 _atom_site_type_symbol
 _atom_site_label
 _atom_site_symmetry_multiplicity
 _atom_site_fract_x
 _atom_site_fract_y
 _atom_site_fract_z
 _atom_site_occupancy
  Zn  Zn0  1  0.50000000  0.50000000  0.50000000  1
  Zn  Zn1  1  0.00000000  0.00000000  0.50000000  1
  Zn  Zn2  1  0.00000000  0.00000000  0.00000000  1
  Zn  Zn3  1  0.50000000  0.50000000  0.00000000  1
  Si  Si4  1  0.14535900  0.23642000  0.64805400  1
  Si  Si5  1  0.85464100  0.76358000  0.64805400  1
  Si  Si6  1  0.23642000  0.14535900  0.85194600  1
  Si  Si7  1  0.73642000  0.35464100  0.64805400  1
  Si  Si8  1  0.26358000  0.64535900  0.64805400  1
  Si  Si9  1  0.35464100  0.73642000  0.85194600  1
  Si  Si10  1  0.64535900  0.26358000  0.85194600  1
  Si  Si11  1  0.76358000  0.85464100  0.85194600  1
  Si  Si12  1  0.35464100  0.26358000  0.35194600  1
  Si  Si13  1  0.64535900  0.73642000  0.35194600  1
  Si  Si14  1  0.26358000  0.35464100  0.14805400  1
  Si  Si15  1  0.76358000  0.14535900  0.35194600  1
  Si  Si16  1  0.23642000  0.85464100  0.35194600  1
  Si  Si17  1  0.14535900  0.76358000  0.14805400  1
  Si  Si18  1  0.85464100  0.23642000  0.14805400  1
  Si  Si19  1  0.73642000  0.64535900  0.14805400  1
  W  W20  1  0.50000000  0.00000000  0.57230400  1
  W  W21  1  0.00000000  0.50000000  0.92769600  1
  W  W22  1  0.00000000  0.50000000  0.42769600  1
  W  W23  1  0.50000000  0.00000000  0.07230400  1
  O  O24  1  0.21474200  0.08937300  0.57572100  1
  O  O25  1  0.78525800  0.91062700  0.57572100  1
  O  O26  1  0.08937300  0.21474200  0.92427900  1
  O  O27  1  0.58937300  0.28525800  0.57572100  1
  O  O28  1  0.41062700  0.71474200  0.57572100  1
  O  O29  1  0.28525800  0.58937300  0.92427900  1
  O  O30  1  0.71474200  0.41062700  0.92427900  1
  O  O31  1  0.91062700  0.78525800  0.92427900  1
  O  O32  1  0.28525800  0.41062700  0.42427900  1
  O  O33  1  0.71474200  0.58937300  0.42427900  1
  O  O34  1  0.41062700  0.28525800  0.07572100  1
  O  O35  1  0.91062700  0.21474200  0.42427900  1
  O  O36  1  0.08937300  0.78525800  0.42427900  1
  O  O37  1  0.21474200  0.91062700  0.07572100  1
  O  O38  1  0.78525800  0.08937300  0.07572100  1
  O  O39  1  0.25754100  0.07018600  0.36829200  1
  O  O40  1  0.58937300  0.71474200  0.07572100  1
  O  O41  1  0.75754100  0.57018600  0.63170800  1
  O  O42  1  0.42981400  0.24245900  0.86829200  1
  O  O43  1  0.92981400  0.25754100  0.63170800  1
  O  O44  1  0.07018600  0.74245900  0.63170800  1
  O  O45  1  0.25754100  0.92981400  0.86829200  1
  O  O46  1  0.74245900  0.07018600  0.86829200  1
  O  O47  1  0.57018600  0.75754100  0.86829200  1
  O  O48  1  0.67616400  0.67616400  0.25000000  1
  O  O49  1  0.82383600  0.17616400  0.25000000  1
  O  O50  1  0.17616400  0.82383600  0.25000000  1
  O  O51  1  0.32383600  0.32383600  0.25000000  1
  O  O52  1  0.82383600  0.82383600  0.75000000  1
  O  O53  1  0.67616400  0.32383600  0.75000000  1
  O  O54  1  0.32383600  0.67616400  0.75000000  1
  O  O55  1  0.17616400  0.17616400  0.75000000  1
  O  O56  1  0.92981400  0.74245900  0.13170800  1
  O  O57  1  0.75754100  0.42981400  0.13170800  1
  O  O58  1  0.24245900  0.57018600  0.13170800  1
  O  O59  1  0.42981400  0.75754100  0.36829200  1
  O  O60  1  0.57018600  0.24245900  0.36829200  1
  O  O61  1  0.07018600  0.25754100  0.13170800  1
  O  O62  1  0.74245900  0.92981400  0.36829200  1
  O  O63  1  0.24245900  0.42981400  0.63170800  1
