# generated using pymatgen
data_Na(CrS2)2
_symmetry_space_group_name_H-M   'P 1'
_cell_length_a   7.34916018
_cell_length_b   7.34916018
_cell_length_c   7.34916018
_cell_angle_alpha   60.00000000
_cell_angle_beta   60.00000000
_cell_angle_gamma   60.00000000
_symmetry_Int_Tables_number   1
_chemical_formula_structural   Na(CrS2)2
_chemical_formula_sum   'Na2 Cr4 S8'
_cell_volume   280.67138779
_cell_formula_units_Z   2
loop_
 _symmetry_equiv_pos_site_id
 _symmetry_equiv_pos_as_xyz
  1  'x, y, z'
loop_
 _atom_site_type_symbol
 _atom_site_label
 _atom_site_symmetry_multiplicity
 _atom_site_fract_x
 _atom_site_fract_y
 _atom_site_fract_z
 _atom_site_occupancy
  Na  Na0  1  0.00000000  0.00000000  0.00000000  1
  Na  Na1  1  0.25000000  0.25000000  0.25000000  1
  Cr  Cr2  1  0.62500000  0.62500000  0.62500000  1
  Cr  Cr3  1  0.12500000  0.62500000  0.62500000  1
  Cr  Cr4  1  0.62500000  0.12500000  0.62500000  1
  Cr  Cr5  1  0.62500000  0.62500000  0.12500000  1
  S  S6  1  0.85564100  0.85564100  0.85564100  1
  S  S7  1  0.81692400  0.39435900  0.39435900  1
  S  S8  1  0.39435900  0.39435900  0.81692400  1
  S  S9  1  0.39435900  0.81692400  0.39435900  1
  S  S10  1  0.85564100  0.85564100  0.43307600  1
  S  S11  1  0.85564100  0.43307600  0.85564100  1
  S  S12  1  0.39435900  0.39435900  0.39435900  1
  S  S13  1  0.43307600  0.85564100  0.85564100  1
